# generated using pymatgen
data_SiO2
_symmetry_space_group_name_H-M   Pnnm
_cell_length_a   5.04053200
_cell_length_b   8.82039400
_cell_length_c   8.82039400
#_cell_length_c   8.80238000
_cell_angle_alpha   90.00000000
_cell_angle_beta   90.00000000
_cell_angle_gamma   90.00000000
_symmetry_Int_Tables_number   58
_chemical_formula_structural   SiO2
_chemical_formula_sum   'Si8 O16'
_cell_volume   391.34922180
_cell_formula_units_Z   8
loop_
 _symmetry_equiv_pos_site_id
 _symmetry_equiv_pos_as_xyz
  1  'x, y, z'
  2  '-x, -y, -z'
  3  '-x, -y, z'
  4  'x, y, -z'
  5  'x+1/2, -y+1/2, -z+1/2'
  6  '-x+1/2, y+1/2, z+1/2'
  7  '-x+1/2, y+1/2, -z+1/2'
  8  'x+1/2, -y+1/2, z+1/2'
loop_
 _atom_site_type_symbol
 _atom_site_label
 _atom_site_symmetry_multiplicity
 _atom_site_fract_x
 _atom_site_fract_y
 _atom_site_fract_z
 _atom_site_occupancy
  Si  Si0  8  0.06390600  0.82518300  0.18052300  1
  #O  O1  8  0.12914700  0.28775900  0.27612400  1
  #O  O2  4  0.00000000  0.00000000  0.22521800  1
  #O  O3  4  0.01639000  0.79829700  0.00000000  1
